104
XYZ Grid Points
  H           0.00000000         -33.92070000           0.00000000
  H           0.00000000         -34.71069999           0.00000000
  H           0.00000000         -34.71069999          -0.79000000
  H           0.00000000         -34.71069999           0.79000000
  H          17.99583391          17.99583391           0.00000000
  H          18.55444826          18.55444826           0.00000000
  H          18.55444826          18.55444826          -0.79000000
  H          18.55444826          18.55444826           0.79000000
  H           0.00000000          33.92070000           0.00000000
  H           0.00000000          34.71069999           0.00000000
  H           0.00000000          34.71069999          -0.79000000
  H           0.00000000          34.71069999           0.79000000
  H         -17.99583391          17.99583391           0.00000000
  H         -18.55444826          18.55444826           0.00000000
  H         -18.55444826          18.55444826          -0.79000000
  H         -18.55444826          18.55444826           0.79000000
  H         -33.92070000           0.00000000           0.00000000
  H         -34.71069999           0.00000000           0.00000000
  H         -34.71069999           0.00000000          -0.79000000
  H         -34.71069999           0.00000000           0.79000000
  H         -17.99583391         -17.99583391           0.00000000
  H         -18.55444826         -18.55444826           0.00000000
  H         -18.55444826         -18.55444826          -0.79000000
  H         -18.55444826         -18.55444826           0.79000000
  H          17.99583391         -17.99583391           0.00000000
  H          18.55444826         -18.55444826           0.00000000
  H          18.55444826         -18.55444826          -0.79000000
  H          18.55444826         -18.55444826           0.79000000
  H          33.92070000          -0.00000000           0.00000000
  H          34.71069999          -0.00000000           0.00000000
  H          34.71069999          -0.00000000          -0.79000000
  H          34.71069999          -0.00000000           0.79000000
  H         -14.74356610          20.85055114         -14.74356610
  H         -15.13856611          21.40916551         -15.13856611
  H         -15.69718047          21.40916551         -14.57995175
  H         -14.57995175          21.40916551         -15.69718047
  H          14.74356610          20.85055114          14.74356610
  H          15.13856611          21.40916551          15.13856611
  H          14.57995175          21.40916551          15.69718047
  H          15.69718047          21.40916551          14.57995175
  H          20.35511269           0.00000000          20.35511269
  H          20.91372704           0.00000000          20.91372704
  H          20.35511268           0.00000000          21.47234140
  H          21.47234140           0.00000000          20.35511268
  H          14.74356610         -20.85055114          14.74356610
  H          15.13856611         -21.40916551          15.13856611
  H          14.57995175         -21.40916551          15.69718047
  H          15.69718047         -21.40916551          14.57995175
  H         -14.74356610         -20.85055114         -14.74356610
  H         -15.13856611         -21.40916551         -15.13856611
  H         -15.69718047         -21.40916551         -14.57995175
  H         -14.57995175         -21.40916551         -15.69718047
  H         -20.35511269          -0.00000000         -20.35511269
  H         -20.91372704          -0.00000000         -20.91372704
  H         -21.47234140          -0.00000000         -20.35511268
  H         -20.35511268          -0.00000000         -21.47234140
  H          14.74356610          20.85055114         -14.74356610
  H          15.13856611          21.40916551         -15.13856611
  H          14.57995175          21.40916551         -15.69718047
  H          15.69718047          21.40916551         -14.57995175
  H         -14.74356610          20.85055114          14.74356610
  H         -15.13856611          21.40916551          15.13856611
  H         -15.69718047          21.40916551          14.57995175
  H         -14.57995175          21.40916551          15.69718047
  H         -20.35511269           0.00000000          20.35511269
  H         -20.91372704           0.00000000          20.91372704
  H         -21.47234140           0.00000000          20.35511268
  H         -20.35511268           0.00000000          21.47234140
  H         -14.74356610         -20.85055114          14.74356610
  H         -15.13856611         -21.40916551          15.13856611
  H         -15.69718047         -21.40916551          14.57995175
  H         -14.57995175         -21.40916551          15.69718047
  H          14.74356610         -20.85055114         -14.74356610
  H          15.13856611         -21.40916551         -15.13856611
  H          14.57995175         -21.40916551         -15.69718047
  H          15.69718047         -21.40916551         -14.57995175
  H          20.35511269          -0.00000000         -20.35511269
  H          20.91372704          -0.00000000         -20.91372704
  H          20.35511268          -0.00000000         -21.47234140
  H          21.47234140          -0.00000000         -20.35511268
  H           0.00000000          20.35511269         -20.35511269
  H           0.00000000          20.91372704         -20.91372704
  H          -0.79000000          20.91372704         -20.91372704
  H           0.79000000          20.91372704         -20.91372704
  H          -0.00000000          20.35511269          20.35511269
  H          -0.00000000          20.91372704          20.91372704
  H          -0.79000000          20.91372704          20.91372704
  H           0.79000000          20.91372704          20.91372704
  H          -0.00000000           0.00000000          25.45000000
  H          -0.00000000           0.00000000          26.24000002
  H          -0.79000000           0.00000000          26.24000002
  H           0.79000000           0.00000000          26.24000002
  H          -0.00000000         -20.35511269          20.35511269
  H          -0.00000000         -20.91372704          20.91372704
  H          -0.79000000         -20.91372704          20.91372704
  H           0.79000000         -20.91372704          20.91372704
  H           0.00000000         -20.35511269         -20.35511269
  H           0.00000000         -20.91372704         -20.91372704
  H          -0.79000000         -20.91372704         -20.91372704
  H           0.79000000         -20.91372704         -20.91372704
  H           0.00000000          -0.00000000         -25.45000000
  H           0.00000000          -0.00000000         -26.24000002
  H          -0.79000000          -0.00000000         -26.24000002
  H           0.79000000          -0.00000000         -26.24000002
